fortran/parser/parser_data.raw
0  100.000


        1,   2,   0.000,   1.000,   0.000,   0.000,   1,   0.000,   0.000,'BUS-001   ',    1.0000,   2
        2,   1,   1.000,   2.000,   0.000,   0.000,   1,   0.000,   0.000,'BUS-002   ',    0.0000,   2
        3,   1,   2.000,   3.000,   0.000,   0.000,   1,   0.000,   0.000,'BUS-003   ',    0.0000,   2
        4,   1,   3.000,   4.000,   0.000,   0.000,   1,   0.000,   0.000,'BUS-004   ',    0.0000,   2
        5,   1,   4.000,   5.000,   0.000,   0.000,   1,   0.000,   0.000,'BUS-005   ',    0.0000,   2
        6,   1,   5.000,   6.000,   0.000,   0.000,   1,   0.000,   0.000,'BUS-006   ',    0.0000,   2
        7,   1,   6.000,   7.000,   0.000,   0.000,   1,   0.000,   0.000,'BUS-007   ',    0.0000,   2
        8,   1,   7.000,   8.000,   0.000,   0.000,   1,   0.000,   0.000,'BUS-008   ',    0.0000,   2
        9,   1,   8.000,   9.000,   0.000,   0.000,   1,   0.000,   0.000,'BUS-009   ',    0.0000,   2
       10,   1,   9.000,  10.000,   0.000,   0.000,   1,   0.000,   0.000,'BUS-010   ',    0.0000,   2
       11,   1,  10.000,  11.000,   0.000,   0.000,   1,   0.000,   0.000,'BUS-011   ',    0.0000,   2
       12,   1,  11.000,  12.000,   0.000,   0.000,   1,   0.000,   0.000,'BUS-012   ',    0.0000,   2
       13,   1,  12.000,  13.000,   0.000,   0.000,   1,   0.000,   0.000,'BUS-013   ',    0.0000,   2
       14,   1,  13.000,  14.000,   0.000,   0.000,   1,   0.000,   0.000,'BUS-014   ',    0.0000,   2
       15,   1,  14.000,  15.000,   0.000,   0.000,   1,   0.000,   0.000,'BUS-015   ',    0.0000,   2
       16,   1,  15.000,  16.000,   0.000,   0.000,   1,   0.000,   0.000,'BUS-016   ',    0.0000,   2
       17,   1,  16.000,  17.000,   0.000,   0.000,   1,   0.000,   0.000,'BUS-017   ',    0.0000,   2
       18,   1,  17.000,  18.000,   0.000,   0.000,   1,   0.000,   0.000,'BUS-018   ',    0.0000,   2
       19,   1,  18.000,  19.000,   0.000,   0.000,   1,   0.000,   0.000,'BUS-019   ',    0.0000,   2
       20,   1,  19.000,  20.000,   0.000,   0.000,   1,   0.000,   0.000,'BUS-020   ',    0.0000,   2
       21,   1,  20.000,  21.000,   0.000,   0.000,   1,   0.000,   0.000,'BUS-021   ',    0.0000,   2
       22,   1,  21.000,  22.000,   0.000,   0.000,   1,   0.000,   0.000,'BUS-022   ',    0.0000,   2
       23,   1,  22.000,  23.000,   0.000,   0.000,   1,   0.000,   0.000,'BUS-023   ',    0.0000,   2
       24,   1,  23.000,  24.000,   0.000,   0.000,   1,   0.000,   0.000,'BUS-024   ',    0.0000,   2
       25,   1,  24.000,  25.000,   0.000,   0.000,   1,   0.000,   0.000,'BUS-025   ',    0.0000,   2
       26,   1,  25.000,  26.000,   0.000,   0.000,   1,   0.000,   0.000,'BUS-026   ',    0.0000,   2
       27,   1,  26.000,  27.000,   0.000,   0.000,   1,   0.000,   0.000,'BUS-027   ',    0.0000,   2
       28,   1,  27.000,  28.000,   0.000,   0.000,   1,   0.000,   0.000,'BUS-028   ',    0.0000,   2
       29,   1,  28.000,  29.000,   0.000,   0.000,   1,   0.000,   0.000,'BUS-029   ',    0.0000,   2
       30,   1,  29.000,  30.000,   0.000,   0.000,   1,   0.000,   0.000,'BUS-030   ',    0.0000,   2
       31,   1,  30.000,  31.000,   0.000,   0.000,   1,   0.000,   0.000,'BUS-031   ',    0.0000,   2
       32,   1,  31.000,  32.000,   0.000,   0.000,   1,   0.000,   0.000,'BUS-032   ',    0.0000,   2
       33,   1,  32.000,  33.000,   0.000,   0.000,   1,   0.000,   0.000,'BUS-033   ',    0.0000,   2
       34,   1,  33.000,  34.000,   0.000,   0.000,   1,   0.000,   0.000,'BUS-034   ',    0.0000,   2
       35,   1,  34.000,  35.000,   0.000,   0.000,   1,   0.000,   0.000,'BUS-035   ',    0.0000,   2
       36,   1,  35.000,  36.000,   0.000,   0.000,   1,   0.000,   0.000,'BUS-036   ',    0.0000,   2
       37,   1,  36.000,  37.000,   0.000,   0.000,   1,   0.000,   0.000,'BUS-037   ',    0.0000,   2
       38,   1,  37.000,  38.000,   0.000,   0.000,   1,   0.000,   0.000,'BUS-038   ',    0.0000,   2
       39,   1,  38.000,  39.000,   0.000,   0.000,   1,   0.000,   0.000,'BUS-039   ',    0.0000,   2
       40,   1,  39.000,  40.000,   0.000,   0.000,   1,   0.000,   0.000,'BUS-040   ',    0.0000,   2
       41,   1,  40.000,  41.000,   0.000,   0.000,   1,   0.000,   0.000,'BUS-041   ',    0.0000,   2
       42,   1,  41.000,  42.000,   0.000,   0.000,   1,   0.000,   0.000,'BUS-042   ',    0.0000,   2
       43,   1,  42.000,  43.000,   0.000,   0.000,   1,   0.000,   0.000,'BUS-043   ',    0.0000,   2
       44,   1,  43.000,  44.000,   0.000,   0.000,   1,   0.000,   0.000,'BUS-044   ',    0.0000,   2
       45,   1,  44.000,  45.000,   0.000,   0.000,   1,   0.000,   0.000,'BUS-045   ',    0.0000,   2
       46,   1,  45.000,  46.000,   0.000,   0.000,   1,   0.000,   0.000,'BUS-046   ',    0.0000,   2
       47,   1,  46.000,  47.000,   0.000,   0.000,   1,   0.000,   0.000,'BUS-047   ',    0.0000,   2
       48,   1,  47.000,  48.000,   0.000,   0.000,   1,   0.000,   0.000,'BUS-048   ',    0.0000,   2
       49,   1,  48.000,  49.000,   0.000,   0.000,   1,   0.000,   0.000,'BUS-049   ',    0.0000,   2
       50,   1,  49.000,  50.000,   0.000,   0.000,   1,   0.000,   0.000,'BUS-050   ',    0.0000,   2
       51,   1,  50.000,  51.000,   0.000,   0.000,   1,   0.000,   0.000,'BUS-051   ',    0.0000,   2
       52,   1,  51.000,  52.000,   0.000,   0.000,   1,   0.000,   0.000,'BUS-052   ',    0.0000,   2
       53,   1,  52.000,  53.000,   0.000,   0.000,   1,   0.000,   0.000,'BUS-053   ',    0.0000,   2
       54,   1,  53.000,  54.000,   0.000,   0.000,   1,   0.000,   0.000,'BUS-054   ',    0.0000,   2
       55,   1,  54.000,  55.000,   0.000,   0.000,   1,   0.000,   0.000,'BUS-055   ',    0.0000,   2
       56,   1,  55.000,  56.000,   0.000,   0.000,   1,   0.000,   0.000,'BUS-056   ',    0.0000,   2
       57,   1,  56.000,  57.000,   0.000,   0.000,   1,   0.000,   0.000,'BUS-057   ',    0.0000,   2
       58,   1,  57.000,  58.000,   0.000,   0.000,   1,   0.000,   0.000,'BUS-058   ',    0.0000,   2
       59,   1,  58.000,  59.000,   0.000,   0.000,   1,   0.000,   0.000,'BUS-059   ',    0.0000,   2
       60,   1,  59.000,  60.000,   0.000,   0.000,   1,   0.000,   0.000,'BUS-060   ',    0.0000,   2
       61,   1,  60.000,  61.000,   0.000,   0.000,   1,   0.000,   0.000,'BUS-061   ',    0.0000,   2
       62,   1,  61.000,  62.000,   0.000,   0.000,   1,   0.000,   0.000,'BUS-062   ',    0.0000,   2
       63,   1,  62.000,  63.000,   0.000,   0.000,   1,   0.000,   0.000,'BUS-063   ',    0.0000,   2
       64,   1,  63.000,  64.000,   0.000,   0.000,   1,   0.000,   0.000,'BUS-064   ',    0.0000,   2
       65,   1,  64.000,  65.000,   0.000,   0.000,   1,   0.000,   0.000,'BUS-065   ',    0.0000,   2
       66,   1,  65.000,  66.000,   0.000,   0.000,   1,   0.000,   0.000,'BUS-066   ',    0.0000,   2
       67,   1,  66.000,  67.000,   0.000,   0.000,   1,   0.000,   0.000,'BUS-067   ',    0.0000,   2
       68,   1,  67.000,  68.000,   0.000,   0.000,   1,   0.000,   0.000,'BUS-068   ',    0.0000,   2
       69,   1,  68.000,  69.000,   0.000,   0.000,   1,   0.000,   0.000,'BUS-069   ',    0.0000,   2
       70,   1,  69.000,  70.000,   0.000,   0.000,   1,   0.000,   0.000,'BUS-070   ',    0.0000,   2
       71,   1,  70.000,  71.000,   0.000,   0.000,   1,   0.000,   0.000,'BUS-071   ',    0.0000,   2
       72,   1,  71.000,  72.000,   0.000,   0.000,   1,   0.000,   0.000,'BUS-072   ',    0.0000,   2
       73,   1,  72.000,  73.000,   0.000,   0.000,   1,   0.000,   0.000,'BUS-073   ',    0.0000,   2
       74,   1,  73.000,  74.000,   0.000,   0.000,   1,   0.000,   0.000,'BUS-074   ',    0.0000,   2
       75,   1,  74.000,  75.000,   0.000,   0.000,   1,   0.000,   0.000,'BUS-075   ',    0.0000,   2
       76,   1,  75.000,  76.000,   0.000,   0.000,   1,   0.000,   0.000,'BUS-076   ',    0.0000,   2
       77,   1,  76.000,  77.000,   0.000,   0.000,   1,   0.000,   0.000,'BUS-077   ',    0.0000,   2
       78,   1,  77.000,  78.000,   0.000,   0.000,   1,   0.000,   0.000,'BUS-078   ',    0.0000,   2
       79,   1,  78.000,  79.000,   0.000,   0.000,   1,   0.000,   0.000,'BUS-079   ',    0.0000,   2
       80,   1,  79.000,  80.000,   0.000,   0.000,   1,   0.000,   0.000,'BUS-080   ',    0.0000,   2
       81,   1,  80.000,  81.000,   0.000,   0.000,   1,   0.000,   0.000,'BUS-081   ',    0.0000,   2
       82,   1,  81.000,  82.000,   0.000,   0.000,   1,   0.000,   0.000,'BUS-082   ',    0.0000,   2
       83,   1,  82.000,  83.000,   0.000,   0.000,   1,   0.000,   0.000,'BUS-083   ',    0.0000,   2
       84,   1,  83.000,  84.000,   0.000,   0.000,   1,   0.000,   0.000,'BUS-084   ',    0.0000,   2
       85,   1,  84.000,  85.000,   0.000,   0.000,   1,   0.000,   0.000,'BUS-085   ',    0.0000,   2
       86,   1,  85.000,  86.000,   0.000,   0.000,   1,   0.000,   0.000,'BUS-086   ',    0.0000,   2
       87,   1,  86.000,  87.000,   0.000,   0.000,   1,   0.000,   0.000,'BUS-087   ',    0.0000,   2
       88,   1,  87.000,  88.000,   0.000,   0.000,   1,   0.000,   0.000,'BUS-088   ',    0.0000,   2
       89,   1,  88.000,  89.000,   0.000,   0.000,   1,   0.000,   0.000,'BUS-089   ',    0.0000,   2
       90,   1,  89.000,  90.000,   0.000,   0.000,   1,   0.000,   0.000,'BUS-090   ',    0.0000,   2
       91,   1,  90.000,  91.000,   0.000,   0.000,   1,   0.000,   0.000,'BUS-091   ',    0.0000,   2
       92,   1,  91.000,  92.000,   0.000,   0.000,   1,   0.000,   0.000,'BUS-092   ',    0.0000,   2
       93,   1,  92.000,  93.000,   0.000,   0.000,   1,   0.000,   0.000,'BUS-093   ',    0.0000,   2
       94,   1,  93.000,  94.000,   0.000,   0.000,   1,   0.000,   0.000,'BUS-094   ',    0.0000,   2
       95,   1,  94.000,  95.000,   0.000,   0.000,   1,   0.000,   0.000,'BUS-095   ',    0.0000,   2
       96,   1,  95.000,  96.000,   0.000,   0.000,   1,   0.000,   0.000,'BUS-096   ',    0.0000,   2
       97,   1,  96.000,  97.000,   0.000,   0.000,   1,   0.000,   0.000,'BUS-097   ',    0.0000,   2
       98,   1,  97.000,  98.000,   0.000,   0.000,   1,   0.000,   0.000,'BUS-098   ',    0.0000,   2
       99,   1,  98.000,  99.000,   0.000,   0.000,   1,   0.000,   0.000,'BUS-099   ',    0.0000,   2
      100,   2,  99.000,   0.000,   0.000,   0.000,   1,   0.000,   0.000,'BUS-100   ',   -1.0000,   2
0 / END OF BUS DATA, BEGIN GENERATOR DATA
0 / END OF GENERATOR DATA, BEGIN BRANCH DATA
        1,        2,'BL',   0.05000,   0.00000,   0.00000,  0.00,  0.00,  0.00, 0.00000,   0.000, 0.00000, 0.00000, 0.00000, 0.00000,   1
        2,        3,'BL',   0.05000,   0.00000,   0.00000,  1.00,  0.00,  0.00, 0.00000,   0.000, 0.00000, 0.00000, 0.00000, 0.00000,   1
        3,        4,'BL',   0.05000,   0.00000,   0.00000,  2.00,  0.00,  0.00, 0.00000,   0.000, 0.00000, 0.00000, 0.00000, 0.00000,   1
        4,        5,'BL',   0.05000,   0.00000,   0.00000,  3.00,  0.00,  0.00, 0.00000,   0.000, 0.00000, 0.00000, 0.00000, 0.00000,   1
        5,        6,'BL',   0.05000,   0.00000,   0.00000,  4.00,  0.00,  0.00, 0.00000,   0.000, 0.00000, 0.00000, 0.00000, 0.00000,   1
        6,        7,'BL',   0.05000,   0.00000,   0.00000,  5.00,  0.00,  0.00, 0.00000,   0.000, 0.00000, 0.00000, 0.00000, 0.00000,   1
        7,        8,'BL',   0.05000,   0.00000,   0.00000,  6.00,  0.00,  0.00, 0.00000,   0.000, 0.00000, 0.00000, 0.00000, 0.00000,   1
        8,        9,'BL',   0.05000,   0.00000,   0.00000,  7.00,  0.00,  0.00, 0.00000,   0.000, 0.00000, 0.00000, 0.00000, 0.00000,   1
        9,       10,'BL',   0.05000,   0.00000,   0.00000,  8.00,  0.00,  0.00, 0.00000,   0.000, 0.00000, 0.00000, 0.00000, 0.00000,   1
       11,       12,'BL',   0.05000,   0.00000,   0.00000,  9.00,  0.00,  0.00, 0.00000,   0.000, 0.00000, 0.00000, 0.00000, 0.00000,   1
       12,       13,'BL',   0.05000,   0.00000,   0.00000, 10.00,  0.00,  0.00, 0.00000,   0.000, 0.00000, 0.00000, 0.00000, 0.00000,   1
       13,       14,'BL',   0.05000,   0.00000,   0.00000, 11.00,  0.00,  0.00, 0.00000,   0.000, 0.00000, 0.00000, 0.00000, 0.00000,   1
       14,       15,'BL',   0.05000,   0.00000,   0.00000, 12.00,  0.00,  0.00, 0.00000,   0.000, 0.00000, 0.00000, 0.00000, 0.00000,   1
       15,       16,'BL',   0.05000,   0.00000,   0.00000, 13.00,  0.00,  0.00, 0.00000,   0.000, 0.00000, 0.00000, 0.00000, 0.00000,   1
       16,       17,'BL',   0.05000,   0.00000,   0.00000, 14.00,  0.00,  0.00, 0.00000,   0.000, 0.00000, 0.00000, 0.00000, 0.00000,   1
       17,       18,'BL',   0.05000,   0.00000,   0.00000, 15.00,  0.00,  0.00, 0.00000,   0.000, 0.00000, 0.00000, 0.00000, 0.00000,   1
       18,       19,'BL',   0.05000,   0.00000,   0.00000, 16.00,  0.00,  0.00, 0.00000,   0.000, 0.00000, 0.00000, 0.00000, 0.00000,   1
       19,       20,'BL',   0.05000,   0.00000,   0.00000, 17.00,  0.00,  0.00, 0.00000,   0.000, 0.00000, 0.00000, 0.00000, 0.00000,   1
       21,       22,'BL',   0.05000,   0.00000,   0.00000, 18.00,  0.00,  0.00, 0.00000,   0.000, 0.00000, 0.00000, 0.00000, 0.00000,   1
       22,       23,'BL',   0.05000,   0.00000,   0.00000, 19.00,  0.00,  0.00, 0.00000,   0.000, 0.00000, 0.00000, 0.00000, 0.00000,   1
       23,       24,'BL',   0.05000,   0.00000,   0.00000, 20.00,  0.00,  0.00, 0.00000,   0.000, 0.00000, 0.00000, 0.00000, 0.00000,   1
       24,       25,'BL',   0.05000,   0.00000,   0.00000, 21.00,  0.00,  0.00, 0.00000,   0.000, 0.00000, 0.00000, 0.00000, 0.00000,   1
       25,       26,'BL',   0.05000,   0.00000,   0.00000, 22.00,  0.00,  0.00, 0.00000,   0.000, 0.00000, 0.00000, 0.00000, 0.00000,   1
       26,       27,'BL',   0.05000,   0.00000,   0.00000, 23.00,  0.00,  0.00, 0.00000,   0.000, 0.00000, 0.00000, 0.00000, 0.00000,   1
       27,       28,'BL',   0.05000,   0.00000,   0.00000, 24.00,  0.00,  0.00, 0.00000,   0.000, 0.00000, 0.00000, 0.00000, 0.00000,   1
       28,       29,'BL',   0.05000,   0.00000,   0.00000, 25.00,  0.00,  0.00, 0.00000,   0.000, 0.00000, 0.00000, 0.00000, 0.00000,   1
       29,       30,'BL',   0.05000,   0.00000,   0.00000, 26.00,  0.00,  0.00, 0.00000,   0.000, 0.00000, 0.00000, 0.00000, 0.00000,   1
       31,       32,'BL',   0.05000,   0.00000,   0.00000, 27.00,  0.00,  0.00, 0.00000,   0.000, 0.00000, 0.00000, 0.00000, 0.00000,   1
       32,       33,'BL',   0.05000,   0.00000,   0.00000, 28.00,  0.00,  0.00, 0.00000,   0.000, 0.00000, 0.00000, 0.00000, 0.00000,   1
       33,       34,'BL',   0.05000,   0.00000,   0.00000, 29.00,  0.00,  0.00, 0.00000,   0.000, 0.00000, 0.00000, 0.00000, 0.00000,   1
       34,       35,'BL',   0.05000,   0.00000,   0.00000, 30.00,  0.00,  0.00, 0.00000,   0.000, 0.00000, 0.00000, 0.00000, 0.00000,   1
       35,       36,'BL',   0.05000,   0.00000,   0.00000, 31.00,  0.00,  0.00, 0.00000,   0.000, 0.00000, 0.00000, 0.00000, 0.00000,   1
       36,       37,'BL',   0.05000,   0.00000,   0.00000, 32.00,  0.00,  0.00, 0.00000,   0.000, 0.00000, 0.00000, 0.00000, 0.00000,   1
       37,       38,'BL',   0.05000,   0.00000,   0.00000, 33.00,  0.00,  0.00, 0.00000,   0.000, 0.00000, 0.00000, 0.00000, 0.00000,   1
       38,       39,'BL',   0.05000,   0.00000,   0.00000, 34.00,  0.00,  0.00, 0.00000,   0.000, 0.00000, 0.00000, 0.00000, 0.00000,   1
       39,       40,'BL',   0.05000,   0.00000,   0.00000, 35.00,  0.00,  0.00, 0.00000,   0.000, 0.00000, 0.00000, 0.00000, 0.00000,   1
       41,       42,'BL',   0.05000,   0.00000,   0.00000, 36.00,  0.00,  0.00, 0.00000,   0.000, 0.00000, 0.00000, 0.00000, 0.00000,   1
       42,       43,'BL',   0.05000,   0.00000,   0.00000, 37.00,  0.00,  0.00, 0.00000,   0.000, 0.00000, 0.00000, 0.00000, 0.00000,   1
       43,       44,'BL',   0.05000,   0.00000,   0.00000, 38.00,  0.00,  0.00, 0.00000,   0.000, 0.00000, 0.00000, 0.00000, 0.00000,   1
       44,       45,'BL',   0.05000,   0.00000,   0.00000, 39.00,  0.00,  0.00, 0.00000,   0.000, 0.00000, 0.00000, 0.00000, 0.00000,   1
       45,       46,'BL',   0.05000,   0.00000,   0.00000, 40.00,  0.00,  0.00, 0.00000,   0.000, 0.00000, 0.00000, 0.00000, 0.00000,   1
       46,       47,'BL',   0.05000,   0.00000,   0.00000, 41.00,  0.00,  0.00, 0.00000,   0.000, 0.00000, 0.00000, 0.00000, 0.00000,   1
       47,       48,'BL',   0.05000,   0.00000,   0.00000, 42.00,  0.00,  0.00, 0.00000,   0.000, 0.00000, 0.00000, 0.00000, 0.00000,   1
       48,       49,'BL',   0.05000,   0.00000,   0.00000, 43.00,  0.00,  0.00, 0.00000,   0.000, 0.00000, 0.00000, 0.00000, 0.00000,   1
       49,       50,'BL',   0.05000,   0.00000,   0.00000, 44.00,  0.00,  0.00, 0.00000,   0.000, 0.00000, 0.00000, 0.00000, 0.00000,   1
       51,       52,'BL',   0.05000,   0.00000,   0.00000, 45.00,  0.00,  0.00, 0.00000,   0.000, 0.00000, 0.00000, 0.00000, 0.00000,   1
       52,       53,'BL',   0.05000,   0.00000,   0.00000, 46.00,  0.00,  0.00, 0.00000,   0.000, 0.00000, 0.00000, 0.00000, 0.00000,   1
       53,       54,'BL',   0.05000,   0.00000,   0.00000, 47.00,  0.00,  0.00, 0.00000,   0.000, 0.00000, 0.00000, 0.00000, 0.00000,   1
       54,       55,'BL',   0.05000,   0.00000,   0.00000, 48.00,  0.00,  0.00, 0.00000,   0.000, 0.00000, 0.00000, 0.00000, 0.00000,   1
       55,       56,'BL',   0.05000,   0.00000,   0.00000, 49.00,  0.00,  0.00, 0.00000,   0.000, 0.00000, 0.00000, 0.00000, 0.00000,   1
       56,       57,'BL',   0.05000,   0.00000,   0.00000, 50.00,  0.00,  0.00, 0.00000,   0.000, 0.00000, 0.00000, 0.00000, 0.00000,   1
       57,       58,'BL',   0.05000,   0.00000,   0.00000, 51.00,  0.00,  0.00, 0.00000,   0.000, 0.00000, 0.00000, 0.00000, 0.00000,   1
       58,       59,'BL',   0.05000,   0.00000,   0.00000, 52.00,  0.00,  0.00, 0.00000,   0.000, 0.00000, 0.00000, 0.00000, 0.00000,   1
       59,       60,'BL',   0.05000,   0.00000,   0.00000, 53.00,  0.00,  0.00, 0.00000,   0.000, 0.00000, 0.00000, 0.00000, 0.00000,   1
       61,       62,'BL',   0.05000,   0.00000,   0.00000, 54.00,  0.00,  0.00, 0.00000,   0.000, 0.00000, 0.00000, 0.00000, 0.00000,   1
       62,       63,'BL',   0.05000,   0.00000,   0.00000, 55.00,  0.00,  0.00, 0.00000,   0.000, 0.00000, 0.00000, 0.00000, 0.00000,   1
       63,       64,'BL',   0.05000,   0.00000,   0.00000, 56.00,  0.00,  0.00, 0.00000,   0.000, 0.00000, 0.00000, 0.00000, 0.00000,   1
       64,       65,'BL',   0.05000,   0.00000,   0.00000, 57.00,  0.00,  0.00, 0.00000,   0.000, 0.00000, 0.00000, 0.00000, 0.00000,   1
       65,       66,'BL',   0.05000,   0.00000,   0.00000, 58.00,  0.00,  0.00, 0.00000,   0.000, 0.00000, 0.00000, 0.00000, 0.00000,   1
       66,       67,'BL',   0.05000,   0.00000,   0.00000, 59.00,  0.00,  0.00, 0.00000,   0.000, 0.00000, 0.00000, 0.00000, 0.00000,   1
       67,       68,'BL',   0.05000,   0.00000,   0.00000, 60.00,  0.00,  0.00, 0.00000,   0.000, 0.00000, 0.00000, 0.00000, 0.00000,   1
       68,       69,'BL',   0.05000,   0.00000,   0.00000, 61.00,  0.00,  0.00, 0.00000,   0.000, 0.00000, 0.00000, 0.00000, 0.00000,   1
       69,       70,'BL',   0.05000,   0.00000,   0.00000, 62.00,  0.00,  0.00, 0.00000,   0.000, 0.00000, 0.00000, 0.00000, 0.00000,   1
       71,       72,'BL',   0.05000,   0.00000,   0.00000, 63.00,  0.00,  0.00, 0.00000,   0.000, 0.00000, 0.00000, 0.00000, 0.00000,   1
       72,       73,'BL',   0.05000,   0.00000,   0.00000, 64.00,  0.00,  0.00, 0.00000,   0.000, 0.00000, 0.00000, 0.00000, 0.00000,   1
       73,       74,'BL',   0.05000,   0.00000,   0.00000, 65.00,  0.00,  0.00, 0.00000,   0.000, 0.00000, 0.00000, 0.00000, 0.00000,   1
       74,       75,'BL',   0.05000,   0.00000,   0.00000, 66.00,  0.00,  0.00, 0.00000,   0.000, 0.00000, 0.00000, 0.00000, 0.00000,   1
       75,       76,'BL',   0.05000,   0.00000,   0.00000, 67.00,  0.00,  0.00, 0.00000,   0.000, 0.00000, 0.00000, 0.00000, 0.00000,   1
       76,       77,'BL',   0.05000,   0.00000,   0.00000, 68.00,  0.00,  0.00, 0.00000,   0.000, 0.00000, 0.00000, 0.00000, 0.00000,   1
       77,       78,'BL',   0.05000,   0.00000,   0.00000, 69.00,  0.00,  0.00, 0.00000,   0.000, 0.00000, 0.00000, 0.00000, 0.00000,   1
       78,       79,'BL',   0.05000,   0.00000,   0.00000, 70.00,  0.00,  0.00, 0.00000,   0.000, 0.00000, 0.00000, 0.00000, 0.00000,   1
       79,       80,'BL',   0.05000,   0.00000,   0.00000, 71.00,  0.00,  0.00, 0.00000,   0.000, 0.00000, 0.00000, 0.00000, 0.00000,   1
       81,       82,'BL',   0.05000,   0.00000,   0.00000, 72.00,  0.00,  0.00, 0.00000,   0.000, 0.00000, 0.00000, 0.00000, 0.00000,   1
       82,       83,'BL',   0.05000,   0.00000,   0.00000, 73.00,  0.00,  0.00, 0.00000,   0.000, 0.00000, 0.00000, 0.00000, 0.00000,   1
       83,       84,'BL',   0.05000,   0.00000,   0.00000, 74.00,  0.00,  0.00, 0.00000,   0.000, 0.00000, 0.00000, 0.00000, 0.00000,   1
       84,       85,'BL',   0.05000,   0.00000,   0.00000, 75.00,  0.00,  0.00, 0.00000,   0.000, 0.00000, 0.00000, 0.00000, 0.00000,   1
       85,       86,'BL',   0.05000,   0.00000,   0.00000, 76.00,  0.00,  0.00, 0.00000,   0.000, 0.00000, 0.00000, 0.00000, 0.00000,   1
       86,       87,'BL',   0.05000,   0.00000,   0.00000, 77.00,  0.00,  0.00, 0.00000,   0.000, 0.00000, 0.00000, 0.00000, 0.00000,   1
       87,       88,'BL',   0.05000,   0.00000,   0.00000, 78.00,  0.00,  0.00, 0.00000,   0.000, 0.00000, 0.00000, 0.00000, 0.00000,   1
       88,       89,'BL',   0.05000,   0.00000,   0.00000, 79.00,  0.00,  0.00, 0.00000,   0.000, 0.00000, 0.00000, 0.00000, 0.00000,   1
       89,       90,'BL',   0.05000,   0.00000,   0.00000, 80.00,  0.00,  0.00, 0.00000,   0.000, 0.00000, 0.00000, 0.00000, 0.00000,   1
       91,       92,'BL',   0.05000,   0.00000,   0.00000, 81.00,  0.00,  0.00, 0.00000,   0.000, 0.00000, 0.00000, 0.00000, 0.00000,   1
       92,       93,'BL',   0.05000,   0.00000,   0.00000, 82.00,  0.00,  0.00, 0.00000,   0.000, 0.00000, 0.00000, 0.00000, 0.00000,   1
       93,       94,'BL',   0.05000,   0.00000,   0.00000, 83.00,  0.00,  0.00, 0.00000,   0.000, 0.00000, 0.00000, 0.00000, 0.00000,   1
       94,       95,'BL',   0.05000,   0.00000,   0.00000, 84.00,  0.00,  0.00, 0.00000,   0.000, 0.00000, 0.00000, 0.00000, 0.00000,   1
       95,       96,'BL',   0.05000,   0.00000,   0.00000, 85.00,  0.00,  0.00, 0.00000,   0.000, 0.00000, 0.00000, 0.00000, 0.00000,   1
       96,       97,'BL',   0.05000,   0.00000,   0.00000, 86.00,  0.00,  0.00, 0.00000,   0.000, 0.00000, 0.00000, 0.00000, 0.00000,   1
       97,       98,'BL',   0.05000,   0.00000,   0.00000, 87.00,  0.00,  0.00, 0.00000,   0.000, 0.00000, 0.00000, 0.00000, 0.00000,   1
       98,       99,'BL',   0.05000,   0.00000,   0.00000, 88.00,  0.00,  0.00, 0.00000,   0.000, 0.00000, 0.00000, 0.00000, 0.00000,   1
       99,      100,'BL',   0.05000,   0.00000,   0.00000, 89.00,  0.00,  0.00, 0.00000,   0.000, 0.00000, 0.00000, 0.00000, 0.00000,   1
        1,       11,'BL',   0.05000,   0.00000,   0.00000, 90.00,  0.00,  0.00, 0.00000,   0.000, 0.00000, 0.00000, 0.00000, 0.00000,   1
        2,       12,'BL',   0.05000,   0.00000,   0.00000, 91.00,  0.00,  0.00, 0.00000,   0.000, 0.00000, 0.00000, 0.00000, 0.00000,   1
        3,       13,'BL',   0.05000,   0.00000,   0.00000, 92.00,  0.00,  0.00, 0.00000,   0.000, 0.00000, 0.00000, 0.00000, 0.00000,   1
        4,       14,'BL',   0.05000,   0.00000,   0.00000, 93.00,  0.00,  0.00, 0.00000,   0.000, 0.00000, 0.00000, 0.00000, 0.00000,   1
        5,       15,'BL',   0.05000,   0.00000,   0.00000, 94.00,  0.00,  0.00, 0.00000,   0.000, 0.00000, 0.00000, 0.00000, 0.00000,   1
        6,       16,'BL',   0.05000,   0.00000,   0.00000, 95.00,  0.00,  0.00, 0.00000,   0.000, 0.00000, 0.00000, 0.00000, 0.00000,   1
        7,       17,'BL',   0.05000,   0.00000,   0.00000, 96.00,  0.00,  0.00, 0.00000,   0.000, 0.00000, 0.00000, 0.00000, 0.00000,   1
        8,       18,'BL',   0.05000,   0.00000,   0.00000, 97.00,  0.00,  0.00, 0.00000,   0.000, 0.00000, 0.00000, 0.00000, 0.00000,   1
        9,       19,'BL',   0.05000,   0.00000,   0.00000, 98.00,  0.00,  0.00, 0.00000,   0.000, 0.00000, 0.00000, 0.00000, 0.00000,   1
       10,       20,'BL',   0.05000,   0.00000,   0.00000, 99.00,  0.00,  0.00, 0.00000,   0.000, 0.00000, 0.00000, 0.00000, 0.00000,   1
       11,       21,'BL',   0.05000,   0.00000,   0.00000,  0.00,  0.00,  0.00, 0.00000,   0.000, 0.00000, 0.00000, 0.00000, 0.00000,   1
       12,       22,'BL',   0.05000,   0.00000,   0.00000,  1.00,  0.00,  0.00, 0.00000,   0.000, 0.00000, 0.00000, 0.00000, 0.00000,   1
       13,       23,'BL',   0.05000,   0.00000,   0.00000,  2.00,  0.00,  0.00, 0.00000,   0.000, 0.00000, 0.00000, 0.00000, 0.00000,   1
       14,       24,'BL',   0.05000,   0.00000,   0.00000,  3.00,  0.00,  0.00, 0.00000,   0.000, 0.00000, 0.00000, 0.00000, 0.00000,   1
       15,       25,'BL',   0.05000,   0.00000,   0.00000,  4.00,  0.00,  0.00, 0.00000,   0.000, 0.00000, 0.00000, 0.00000, 0.00000,   1
       16,       26,'BL',   0.05000,   0.00000,   0.00000,  5.00,  0.00,  0.00, 0.00000,   0.000, 0.00000, 0.00000, 0.00000, 0.00000,   1
       17,       27,'BL',   0.05000,   0.00000,   0.00000,  6.00,  0.00,  0.00, 0.00000,   0.000, 0.00000, 0.00000, 0.00000, 0.00000,   1
       18,       28,'BL',   0.05000,   0.00000,   0.00000,  7.00,  0.00,  0.00, 0.00000,   0.000, 0.00000, 0.00000, 0.00000, 0.00000,   1
       19,       29,'BL',   0.05000,   0.00000,   0.00000,  8.00,  0.00,  0.00, 0.00000,   0.000, 0.00000, 0.00000, 0.00000, 0.00000,   1
       20,       30,'BL',   0.05000,   0.00000,   0.00000,  9.00,  0.00,  0.00, 0.00000,   0.000, 0.00000, 0.00000, 0.00000, 0.00000,   1
       21,       31,'BL',   0.05000,   0.00000,   0.00000, 10.00,  0.00,  0.00, 0.00000,   0.000, 0.00000, 0.00000, 0.00000, 0.00000,   1
       22,       32,'BL',   0.05000,   0.00000,   0.00000, 11.00,  0.00,  0.00, 0.00000,   0.000, 0.00000, 0.00000, 0.00000, 0.00000,   1
       23,       33,'BL',   0.05000,   0.00000,   0.00000, 12.00,  0.00,  0.00, 0.00000,   0.000, 0.00000, 0.00000, 0.00000, 0.00000,   1
       24,       34,'BL',   0.05000,   0.00000,   0.00000, 13.00,  0.00,  0.00, 0.00000,   0.000, 0.00000, 0.00000, 0.00000, 0.00000,   1
       25,       35,'BL',   0.05000,   0.00000,   0.00000, 14.00,  0.00,  0.00, 0.00000,   0.000, 0.00000, 0.00000, 0.00000, 0.00000,   1
       26,       36,'BL',   0.05000,   0.00000,   0.00000, 15.00,  0.00,  0.00, 0.00000,   0.000, 0.00000, 0.00000, 0.00000, 0.00000,   1
       27,       37,'BL',   0.05000,   0.00000,   0.00000, 16.00,  0.00,  0.00, 0.00000,   0.000, 0.00000, 0.00000, 0.00000, 0.00000,   1
       28,       38,'BL',   0.05000,   0.00000,   0.00000, 17.00,  0.00,  0.00, 0.00000,   0.000, 0.00000, 0.00000, 0.00000, 0.00000,   1
       29,       39,'BL',   0.05000,   0.00000,   0.00000, 18.00,  0.00,  0.00, 0.00000,   0.000, 0.00000, 0.00000, 0.00000, 0.00000,   1
       30,       40,'BL',   0.05000,   0.00000,   0.00000, 19.00,  0.00,  0.00, 0.00000,   0.000, 0.00000, 0.00000, 0.00000, 0.00000,   1
       31,       41,'BL',   0.05000,   0.00000,   0.00000, 20.00,  0.00,  0.00, 0.00000,   0.000, 0.00000, 0.00000, 0.00000, 0.00000,   1
       32,       42,'BL',   0.05000,   0.00000,   0.00000, 21.00,  0.00,  0.00, 0.00000,   0.000, 0.00000, 0.00000, 0.00000, 0.00000,   1
       33,       43,'BL',   0.05000,   0.00000,   0.00000, 22.00,  0.00,  0.00, 0.00000,   0.000, 0.00000, 0.00000, 0.00000, 0.00000,   1
       34,       44,'BL',   0.05000,   0.00000,   0.00000, 23.00,  0.00,  0.00, 0.00000,   0.000, 0.00000, 0.00000, 0.00000, 0.00000,   1
       35,       45,'BL',   0.05000,   0.00000,   0.00000, 24.00,  0.00,  0.00, 0.00000,   0.000, 0.00000, 0.00000, 0.00000, 0.00000,   1
       36,       46,'BL',   0.05000,   0.00000,   0.00000, 25.00,  0.00,  0.00, 0.00000,   0.000, 0.00000, 0.00000, 0.00000, 0.00000,   1
       37,       47,'BL',   0.05000,   0.00000,   0.00000, 26.00,  0.00,  0.00, 0.00000,   0.000, 0.00000, 0.00000, 0.00000, 0.00000,   1
       38,       48,'BL',   0.05000,   0.00000,   0.00000, 27.00,  0.00,  0.00, 0.00000,   0.000, 0.00000, 0.00000, 0.00000, 0.00000,   1
       39,       49,'BL',   0.05000,   0.00000,   0.00000, 28.00,  0.00,  0.00, 0.00000,   0.000, 0.00000, 0.00000, 0.00000, 0.00000,   1
       40,       50,'BL',   0.05000,   0.00000,   0.00000, 29.00,  0.00,  0.00, 0.00000,   0.000, 0.00000, 0.00000, 0.00000, 0.00000,   1
       41,       51,'BL',   0.05000,   0.00000,   0.00000, 30.00,  0.00,  0.00, 0.00000,   0.000, 0.00000, 0.00000, 0.00000, 0.00000,   1
       42,       52,'BL',   0.05000,   0.00000,   0.00000, 31.00,  0.00,  0.00, 0.00000,   0.000, 0.00000, 0.00000, 0.00000, 0.00000,   1
       43,       53,'BL',   0.05000,   0.00000,   0.00000, 32.00,  0.00,  0.00, 0.00000,   0.000, 0.00000, 0.00000, 0.00000, 0.00000,   1
       44,       54,'BL',   0.05000,   0.00000,   0.00000, 33.00,  0.00,  0.00, 0.00000,   0.000, 0.00000, 0.00000, 0.00000, 0.00000,   1
       45,       55,'BL',   0.05000,   0.00000,   0.00000, 34.00,  0.00,  0.00, 0.00000,   0.000, 0.00000, 0.00000, 0.00000, 0.00000,   1
       46,       56,'BL',   0.05000,   0.00000,   0.00000, 35.00,  0.00,  0.00, 0.00000,   0.000, 0.00000, 0.00000, 0.00000, 0.00000,   1
       47,       57,'BL',   0.05000,   0.00000,   0.00000, 36.00,  0.00,  0.00, 0.00000,   0.000, 0.00000, 0.00000, 0.00000, 0.00000,   1
       48,       58,'BL',   0.05000,   0.00000,   0.00000, 37.00,  0.00,  0.00, 0.00000,   0.000, 0.00000, 0.00000, 0.00000, 0.00000,   1
       49,       59,'BL',   0.05000,   0.00000,   0.00000, 38.00,  0.00,  0.00, 0.00000,   0.000, 0.00000, 0.00000, 0.00000, 0.00000,   1
       50,       60,'BL',   0.05000,   0.00000,   0.00000, 39.00,  0.00,  0.00, 0.00000,   0.000, 0.00000, 0.00000, 0.00000, 0.00000,   1
       51,       61,'BL',   0.05000,   0.00000,   0.00000, 40.00,  0.00,  0.00, 0.00000,   0.000, 0.00000, 0.00000, 0.00000, 0.00000,   1
       52,       62,'BL',   0.05000,   0.00000,   0.00000, 41.00,  0.00,  0.00, 0.00000,   0.000, 0.00000, 0.00000, 0.00000, 0.00000,   1
       53,       63,'BL',   0.05000,   0.00000,   0.00000, 42.00,  0.00,  0.00, 0.00000,   0.000, 0.00000, 0.00000, 0.00000, 0.00000,   1
       54,       64,'BL',   0.05000,   0.00000,   0.00000, 43.00,  0.00,  0.00, 0.00000,   0.000, 0.00000, 0.00000, 0.00000, 0.00000,   1
       55,       65,'BL',   0.05000,   0.00000,   0.00000, 44.00,  0.00,  0.00, 0.00000,   0.000, 0.00000, 0.00000, 0.00000, 0.00000,   1
       56,       66,'BL',   0.05000,   0.00000,   0.00000, 45.00,  0.00,  0.00, 0.00000,   0.000, 0.00000, 0.00000, 0.00000, 0.00000,   1
       57,       67,'BL',   0.05000,   0.00000,   0.00000, 46.00,  0.00,  0.00, 0.00000,   0.000, 0.00000, 0.00000, 0.00000, 0.00000,   1
       58,       68,'BL',   0.05000,   0.00000,   0.00000, 47.00,  0.00,  0.00, 0.00000,   0.000, 0.00000, 0.00000, 0.00000, 0.00000,   1
       59,       69,'BL',   0.05000,   0.00000,   0.00000, 48.00,  0.00,  0.00, 0.00000,   0.000, 0.00000, 0.00000, 0.00000, 0.00000,   1
       60,       70,'BL',   0.05000,   0.00000,   0.00000, 49.00,  0.00,  0.00, 0.00000,   0.000, 0.00000, 0.00000, 0.00000, 0.00000,   1
       61,       71,'BL',   0.05000,   0.00000,   0.00000, 50.00,  0.00,  0.00, 0.00000,   0.000, 0.00000, 0.00000, 0.00000, 0.00000,   1
       62,       72,'BL',   0.05000,   0.00000,   0.00000, 51.00,  0.00,  0.00, 0.00000,   0.000, 0.00000, 0.00000, 0.00000, 0.00000,   1
       63,       73,'BL',   0.05000,   0.00000,   0.00000, 52.00,  0.00,  0.00, 0.00000,   0.000, 0.00000, 0.00000, 0.00000, 0.00000,   1
       64,       74,'BL',   0.05000,   0.00000,   0.00000, 53.00,  0.00,  0.00, 0.00000,   0.000, 0.00000, 0.00000, 0.00000, 0.00000,   1
       65,       75,'BL',   0.05000,   0.00000,   0.00000, 54.00,  0.00,  0.00, 0.00000,   0.000, 0.00000, 0.00000, 0.00000, 0.00000,   1
       66,       76,'BL',   0.05000,   0.00000,   0.00000, 55.00,  0.00,  0.00, 0.00000,   0.000, 0.00000, 0.00000, 0.00000, 0.00000,   1
       67,       77,'BL',   0.05000,   0.00000,   0.00000, 56.00,  0.00,  0.00, 0.00000,   0.000, 0.00000, 0.00000, 0.00000, 0.00000,   1
       68,       78,'BL',   0.05000,   0.00000,   0.00000, 57.00,  0.00,  0.00, 0.00000,   0.000, 0.00000, 0.00000, 0.00000, 0.00000,   1
       69,       79,'BL',   0.05000,   0.00000,   0.00000, 58.00,  0.00,  0.00, 0.00000,   0.000, 0.00000, 0.00000, 0.00000, 0.00000,   1
       70,       80,'BL',   0.05000,   0.00000,   0.00000, 59.00,  0.00,  0.00, 0.00000,   0.000, 0.00000, 0.00000, 0.00000, 0.00000,   1
       71,       81,'BL',   0.05000,   0.00000,   0.00000, 60.00,  0.00,  0.00, 0.00000,   0.000, 0.00000, 0.00000, 0.00000, 0.00000,   1
       72,       82,'BL',   0.05000,   0.00000,   0.00000, 61.00,  0.00,  0.00, 0.00000,   0.000, 0.00000, 0.00000, 0.00000, 0.00000,   1
       73,       83,'BL',   0.05000,   0.00000,   0.00000, 62.00,  0.00,  0.00, 0.00000,   0.000, 0.00000, 0.00000, 0.00000, 0.00000,   1
       74,       84,'BL',   0.05000,   0.00000,   0.00000, 63.00,  0.00,  0.00, 0.00000,   0.000, 0.00000, 0.00000, 0.00000, 0.00000,   1
       75,       85,'BL',   0.05000,   0.00000,   0.00000, 64.00,  0.00,  0.00, 0.00000,   0.000, 0.00000, 0.00000, 0.00000, 0.00000,   1
       76,       86,'BL',   0.05000,   0.00000,   0.00000, 65.00,  0.00,  0.00, 0.00000,   0.000, 0.00000, 0.00000, 0.00000, 0.00000,   1
       77,       87,'BL',   0.05000,   0.00000,   0.00000, 66.00,  0.00,  0.00, 0.00000,   0.000, 0.00000, 0.00000, 0.00000, 0.00000,   1
       78,       88,'BL',   0.05000,   0.00000,   0.00000, 67.00,  0.00,  0.00, 0.00000,   0.000, 0.00000, 0.00000, 0.00000, 0.00000,   1
       79,       89,'BL',   0.05000,   0.00000,   0.00000, 68.00,  0.00,  0.00, 0.00000,   0.000, 0.00000, 0.00000, 0.00000, 0.00000,   1
       80,       90,'BL',   0.05000,   0.00000,   0.00000, 69.00,  0.00,  0.00, 0.00000,   0.000, 0.00000, 0.00000, 0.00000, 0.00000,   1
       81,       91,'BL',   0.05000,   0.00000,   0.00000, 70.00,  0.00,  0.00, 0.00000,   0.000, 0.00000, 0.00000, 0.00000, 0.00000,   1
       82,       92,'BL',   0.05000,   0.00000,   0.00000, 71.00,  0.00,  0.00, 0.00000,   0.000, 0.00000, 0.00000, 0.00000, 0.00000,   1
       83,       93,'BL',   0.05000,   0.00000,   0.00000, 72.00,  0.00,  0.00, 0.00000,   0.000, 0.00000, 0.00000, 0.00000, 0.00000,   1
       84,       94,'BL',   0.05000,   0.00000,   0.00000, 73.00,  0.00,  0.00, 0.00000,   0.000, 0.00000, 0.00000, 0.00000, 0.00000,   1
       85,       95,'BL',   0.05000,   0.00000,   0.00000, 74.00,  0.00,  0.00, 0.00000,   0.000, 0.00000, 0.00000, 0.00000, 0.00000,   1
       86,       96,'BL',   0.05000,   0.00000,   0.00000, 75.00,  0.00,  0.00, 0.00000,   0.000, 0.00000, 0.00000, 0.00000, 0.00000,   1
       87,       97,'BL',   0.05000,   0.00000,   0.00000, 76.00,  0.00,  0.00, 0.00000,   0.000, 0.00000, 0.00000, 0.00000, 0.00000,   1
       88,       98,'BL',   0.05000,   0.00000,   0.00000, 77.00,  0.00,  0.00, 0.00000,   0.000, 0.00000, 0.00000, 0.00000, 0.00000,   1
       89,       99,'BL',   0.05000,   0.00000,   0.00000, 78.00,  0.00,  0.00, 0.00000,   0.000, 0.00000, 0.00000, 0.00000, 0.00000,   1
       90,      100,'BL',   0.05000,   0.00000,   0.00000, 79.00,  0.00,  0.00, 0.00000,   0.000, 0.00000, 0.00000, 0.00000, 0.00000,   1
0 / END OF BRANCH DATA, BEGIN TRANSFORMER ADJUSTMENT DATA
0 / END OF TRANSFORMER ADJUSTMENT DATA, BEGIN AREA DATA
0 / END OF AREA DATA, BEGIN TWO-TERMINAL DC DATA
0 / END OF TWO-TERMINAL DATA, BEGIN SWITCHED SHUNT DATA
0 / END OF SWITCHED SHUNT DATA
